
 *******************************************************************************

         NASA-GLENN CHEMICAL EQUILIBRIUM PROGRAM CEA2, MAY 21, 2004
                   BY  BONNIE MCBRIDE AND SANFORD GORDON
      REFS: NASA RP-1311, PART I, 1994 AND NASA RP-1311, PART II, 1996

 *******************************************************************************



 problem
 rocket
 equilibrium
 p,bar=30.000
 pip=29.615
 o/f=None
  WARNING!!  DID NOT RECOGNIZE o/f             (INPUT)

  WARNING!!  DID NOT RECOGNIZE None            (INPUT)

 react
 fuel=JP-5 wt=100.000 t,K=298.000
 ox=O2 wt 100 t,K 298.000
 end

 OPTIONS: TP=F  HP=F  SP=F  TV=F  UV=F  SV=F  DETN=F  SHOCK=F  REFL=F  INCD=F
 RKT=T  FROZ=F  EQL=T  IONS=F  SIUNIT=T  DEBUGF=F  SHKDBG=F  DETDBG=F  TRNSPT=F

 TRACE= 0.00E+00  S/R= 0.000000E+00  H/R= 0.000000E+00  U/R= 0.000000E+00

 Pc,BAR =    30.000000

 Pc/P =    29.6150

 SUBSONIC AREA RATIOS =

 SUPERSONIC AREA RATIOS =

 NFZ=  1  Mdot/Ac= 0.000000E+00  Ac/At= 0.000000E+00

    REACTANT          WT.FRAC   (ENERGY/R),K   TEMP,K  DENSITY
        EXPLODED FORMULA
 F: JP-5             1.000000  -0.266799E+04   298.00  0.0000
          C  1.00000  H  1.92000
 O: O2               1.000000  -0.530002E+00   298.00  0.0000
          O  2.00000

  SPECIES BEING CONSIDERED IN THIS SYSTEM
 (CONDENSED PHASE MAY HAVE NAME LISTED SEVERAL TIMES)
  LAST thermo.inp UPDATE:    9/09/04

  g 7/97  *C               tpis79  *CH              g 4/02  CH2            
  g 4/02  CH3              g11/00  CH2OH            g 7/00  CH3O           
  g 8/99  CH4              g 7/00  CH3OH            srd 01  CH3OOH         
  tpis79  *CO              g 9/99  *CO2             tpis91  COOH           
  tpis91  *C2              g 6/01  C2H              g 1/91  C2H2,acetylene 
  g 5/01  C2H2,vinylidene  g 4/02  CH2CO,ketene     g 3/02  O(CH)2O        
  srd 01  HO(CO)2OH        g 7/01  C2H3,vinyl       g 6/96  CH3CO,acetyl   
  g 1/00  C2H4             g 8/88  C2H4O,ethylen-o  g 8/88  CH3CHO,ethanal 
  g 6/00  CH3COOH          srd 01  OHCH2COOH        g 7/00  C2H5           
  g 7/00  C2H6             g 8/88  C2H5OH           g 7/00  CH3OCH3        
  srd 01  CH3O2CH3         g 8/00  C2O              tpis79  *C3            
  n 4/98  C3H3,1-propynl   n 4/98  C3H3,2-propynl   g 2/00  C3H4,allene    
  g 1/00  C3H4,propyne     g 5/90  C3H4,cyclo-      g 3/01  C3H5,allyl     
  g 2/00  C3H6,propylene   g 1/00  C3H6,cyclo-      g 6/01  C3H6O,propylox 
  g 6/97  C3H6O,acetone    g 1/02  C3H6O,propanal   g 7/01  C3H7,n-propyl  
  g 9/85  C3H7,i-propyl    g 2/00  C3H8             g 2/00  C3H8O,1propanol
  g 2/00  C3H8O,2propanol  g 7/88  C3O2             g tpis  *C4            
  g 7/01  C4H2,butadiyne   g 8/00  C4H4,1,3-cyclo-  n10/92  C4H6,butadiene 
  n10/93  C4H6,1butyne     n10/93  C4H6,2butyne     g 8/00  C4H6,cyclo-    
  n 4/88  C4H8,1-butene    n 4/88  C4H8,cis2-buten  n 4/88  C4H8,tr2-butene
  n 4/88  C4H8,isobutene   g 8/00  C4H8,cyclo-      g10/00  (CH3COOH)2     
  n10/84  C4H9,n-butyl     n10/84  C4H9,i-butyl     g 1/93  C4H9,s-butyl   
  g 1/93  C4H9,t-butyl     g12/00  C4H10,n-butane   g 8/00  C4H10,isobutane
  g 8/00  *C5              g 5/90  C5H6,1,3cyclo-   g 1/93  C5H8,cyclo-    
  n 4/87  C5H10,1-pentene  g 2/01  C5H10,cyclo-     n10/84  C5H11,pentyl   
  g 1/93  C5H11,t-pentyl   n10/85  C5H12,n-pentane  n10/85  C5H12,i-pentane
  n10/85  CH3C(CH3)2CH3    g 2/93  C6H2             g11/00  C6H5,phenyl    
  g 8/00  C6H5O,phenoxy    g 8/00  C6H6             g 8/00  C6H5OH,phenol  
  g 1/93  C6H10,cyclo-     n 4/87  C6H12,1-hexene   g 6/90  C6H12,cyclo-   
  n10/83  C6H13,n-hexyl    g 6/01  C6H14,n-hexane   g 7/01  C7H7,benzyl    
  g 1/93  C7H8             g12/00  C7H8O,cresol-mx  n 4/87  C7H14,1-heptene
  n10/83  C7H15,n-heptyl   n10/85  C7H16,n-heptane  n10/85  C7H16,2-methylh
  n 4/89  C8H8,styrene     n10/86  C8H10,ethylbenz  n 4/87  C8H16,1-octene 
  n10/83  C8H17,n-octyl    n 4/85  C8H18,n-octane   n 4/85  C8H18,isooctane
  n10/83  C9H19,n-nonyl    g 3/01  C10H8,naphthale  n10/83  C10H21,n-decyl 
  g 8/00  C12H9,o-bipheny  g 8/00  C12H10,biphenyl  g 6/97  *H             
  g 1/01  HCO              g 6/01  HCCO             g 4/02  HO2            
  tpis78  *H2              g 5/01  HCHO,formaldehy  g 6/01  HCOOH          
  g 8/89  H2O              g 6/99  H2O2             g 6/01  (HCOOH)2       
  g 5/97  *O               g 4/02  *OH              tpis89  *O2            
  g 8/01  O3               n 4/83  C(gr)            n 4/83  C(gr)          
  n 4/83  C(gr)            g11/99  H2O(cr)          g 8/01  H2O(L)         
  g 8/01  H2O(L)         

 O/F =   1.000000

                       EFFECTIVE FUEL     EFFECTIVE OXIDANT        MIXTURE
 ENTHALPY                  h(2)/R              h(1)/R               h0/R
 (KG-MOL)(K)/KG       -0.19130912E+03     -0.16563198E-01     -0.95662842E+02

 KG-FORM.WT./KG             bi(2)               bi(1)               b0i
  *C                   0.71705432E-01      0.00000000E+00      0.35852716E-01
  *H                   0.13767443E+00      0.00000000E+00      0.68837215E-01
  *O                   0.00000000E+00      0.62502344E-01      0.31251172E-01

 POINT ITN      T            C           H           O 
   1   17    1676.778      -0.087      -8.197     -32.236
 ADD  C(gr)          
   1    4    1601.067      -2.314      -8.038     -30.301
 Pinf/Pt = 1.813616
   2    4    1431.497      -2.104      -8.178     -31.751
 Pinf/Pt = 1.796054
   2    2    1433.939      -2.107      -8.175     -31.727
 Pinf/Pt = 1.796411
   2    1    1433.889      -2.107      -8.175     -31.728
   3    5    1024.402      -1.557      -9.124     -38.039





              THEORETICAL ROCKET PERFORMANCE ASSUMING EQUILIBRIUM

           COMPOSITION DURING EXPANSION FROM INFINITE AREA COMBUSTOR

 Pin =   435.1 PSIA
 CASE =                

             REACTANT                    WT FRACTION      ENERGY      TEMP
                                          (SEE NOTE)     KJ/KG-MOL      K  
 FUEL        JP-5                         1.0000000    -22183.000    298.000
 OXIDANT     O2                           1.0000000        -4.407    298.000

 O/F=    1.00000  %FUEL= 50.000000  R,EQ.RATIO= 3.395842  PHI,EQ.RATIO= 3.395842

                 CHAMBER   THROAT     EXIT
 Pinf/P            1.0000   1.7964   29.615
 P, BAR            30.000   16.700   1.0130
 T, K             1601.07  1433.89  1024.40
 RHO, KG/CU M    3.5030 0 2.1986 0 2.0305-1
 H, KJ/KG         -795.39 -1267.77 -2973.53
 U, KJ/KG        -1651.80 -2027.34 -3472.41
 G, KJ/KG        -21076.3 -19431.0 -15949.8
 S, KJ/(KG)(K)    12.6671  12.6671  12.6671

 M, (1/n)          15.544   15.696   17.073
 MW, MOL WT        14.566   14.631   14.689
 (dLV/dLP)t      -1.01919 -1.02775 -1.08074
 (dLV/dLT)p        1.1598   1.2756   2.3244
 Cp, KJ/(KG)(K)    3.1122   3.8524  13.2814
 GAMMAs            1.2690   1.2438   1.1330
 SON VEL,M/SEC     1042.5    972.0    751.8
 MACH NUMBER        0.000    1.000    2.776

 PERFORMANCE PARAMETERS

 Ae/At                      1.0000   5.0425
 CSTAR, M/SEC               1403.8   1403.8
 CF                         0.6924   1.4868
 Ivac, M/SEC                1753.4   2326.2
 Isp, M/SEC                  972.0   2087.2


 MOLE FRACTIONS

 CH4              0.01175  0.01407  0.01611
 *CO              0.44568  0.43845  0.32708
 *CO2             0.00184  0.00422  0.04384
 C2H2,acetylene   0.00001  0.00000  0.00000
 C2H4             0.00002  0.00001  0.00000
 *H               0.00001  0.00000  0.00000
 *H2              0.47193  0.46508  0.42906
 H2O              0.00586  0.01035  0.04429
 C(gr)            0.06289  0.06781  0.13961

  * THERMODYNAMIC PROPERTIES FITTED TO 20000.K

    PRODUCTS WHICH WERE CONSIDERED BUT WHOSE MOLE FRACTIONS
    WERE LESS THAN 5.000000E-06 FOR ALL ASSIGNED CONDITIONS

 *C              *CH             CH2             CH3             CH2OH          
 CH3O            CH3OH           CH3OOH          COOH            *C2            
 C2H             C2H2,vinylidene CH2CO,ketene    O(CH)2O         HO(CO)2OH      
 C2H3,vinyl      CH3CO,acetyl    C2H4O,ethylen-o CH3CHO,ethanal  CH3COOH        
 OHCH2COOH       C2H5            C2H6            C2H5OH          CH3OCH3        
 CH3O2CH3        C2O             *C3             C3H3,1-propynl  C3H3,2-propynl 
 C3H4,allene     C3H4,propyne    C3H4,cyclo-     C3H5,allyl      C3H6,propylene 
 C3H6,cyclo-     C3H6O,propylox  C3H6O,acetone   C3H6O,propanal  C3H7,n-propyl  
 C3H7,i-propyl   C3H8            C3H8O,1propanol C3H8O,2propanol C3O2           
 *C4             C4H2,butadiyne  C4H4,1,3-cyclo- C4H6,butadiene  C4H6,1butyne   
 C4H6,2butyne    C4H6,cyclo-     C4H8,1-butene   C4H8,cis2-buten C4H8,tr2-butene
 C4H8,isobutene  C4H8,cyclo-     (CH3COOH)2      C4H9,n-butyl    C4H9,i-butyl   
 C4H9,s-butyl    C4H9,t-butyl    C4H10,n-butane  C4H10,isobutane *C5            
 C5H6,1,3cyclo-  C5H8,cyclo-     C5H10,1-pentene C5H10,cyclo-    C5H11,pentyl   
 C5H11,t-pentyl  C5H12,n-pentane C5H12,i-pentane CH3C(CH3)2CH3   C6H2           
 C6H5,phenyl     C6H5O,phenoxy   C6H6            C6H5OH,phenol   C6H10,cyclo-   
 C6H12,1-hexene  C6H12,cyclo-    C6H13,n-hexyl   C6H14,n-hexane  C7H7,benzyl    
 C7H8            C7H8O,cresol-mx C7H14,1-heptene C7H15,n-heptyl  C7H16,n-heptane
 C7H16,2-methylh C8H8,styrene    C8H10,ethylbenz C8H16,1-octene  C8H17,n-octyl  
 C8H18,n-octane  C8H18,isooctane C9H19,n-nonyl   C10H8,naphthale C10H21,n-decyl 
 C12H9,o-bipheny C12H10,biphenyl HCO             HCCO            HO2            
 HCHO,formaldehy HCOOH           H2O2            (HCOOH)2        *O             
 *OH             *O2             O3              H2O(cr)         H2O(L)         

 NOTE. WEIGHT FRACTION OF FUEL IN TOTAL FUELS AND OF OXIDANT IN TOTAL OXIDANTS



